/*--------------------------------*- C++ -*----------------------------------*\
| solids4foam: solid mechanics and fluid-solid interaction simulations        |
| Version:     v2.0                                                           |
| Web:         https://solids4foam.github.io                                  |
| Disclaimer:  This offering is not approved or endorsed by OpenCFD Limited,  |
|              producer and distributor of the OpenFOAM software via          |
|              www.openfoam.com, and owner of the OPENFOAM® and OpenCFD®      |
|              trade marks.                                                   |
\*---------------------------------------------------------------------------*/
FoamFile
{
    version     2.0;
    format      ascii;
    class       volVectorField;
    location    "0";
    object      DD;
}
// * * * * * * * * * * * * * * * * * * * * * * * * * * * * * * * * * * * * * //

dimensions      [0 1 0 0 0 0 0];

internalField   uniform (0 0 0);

boundaryField
{
    // Zhang experiment
    "(sides)"
    {
        type            fixedValue;
        value           uniform (0 0 0);
    }
    
    "(bottom)"
    {
        // type            fixedDisplacementShear;
        // fricCoeff   -2e4;
        type            fixedValue;
        value           uniform (0 0 0);
    }

    "symmetryPatch"
    {
        type  symmetry;
    }
    "(wedgeZ0|wedgeZE)"
	{
		type wedge;
	}

    sides
    {
        // type            solidTraction;
        // traction        uniform (0 0 0);
        // pressure        uniform 0;
        // value           uniform (0 0 0);
        type            breadDFloor;
        floorPos        0;
        refValue        uniform (0 0 0);
        refGradient     uniform (0 0 0);
        valueFraction   uniform 1;
        value           uniform 0;
    }
}

// ************************************************************************* //
