/*--------------------------------*- C++ -*----------------------------------*\ 
| =========                 |                                                 | 
| \      /  F ield         | OpenFOAM: The Open Source CFD Toolbox           | 
|  \    /   O peration     | Version:  4.1                                   | 
|   \  /    A nd           | Web:      www.OpenFOAM.org                      | 
|    \/     M anipulation  |                                                 | 
\*---------------------------------------------------------------------------*/ 
FoamFile 
{ 
 	 version 	 2.0; 
 	 format 	 ascii; 
 	 class 		 dictionary; 
 	 object 	 blockMeshDict; 
} 
// * * * * * * * * * * * * * * * * * * * * * * * * * * * * * * * * * * * * * // 

convertToMeters 	1.0; 

vertices 
( 
	 ( -0.009500000000000001 0.0 0.0 )	// 000
	 ( 0.009500000000000001 0.0 0.0 )	// 001
	 ( 0.010500000000000002 0.028999999999999998 -0.0012645615991165365 )	// 002
	 ( -0.010500000000000002 0.028999999999999998 -0.0012645615991165365 )	// 003
	 ( 0.010500000000000002 0.028999999999999998 0.0012645615991165365 )	// 004
	 ( -0.010500000000000002 0.028999999999999998 0.0012645615991165365 )	// 005
	 ( 0.0085 0.032600000000000004 -0.0014215416596965206 )	// 006
	 ( -0.0085 0.032600000000000004 -0.0014215416596965206 )	// 007
	 ( 0.0085 0.032600000000000004 0.0014215416596965206 )	// 008
	 ( -0.0085 0.032600000000000004 0.0014215416596965206 )	// 009
	 ( 0.009500000000000001 0.036 -0.0015698006057998383 )	// 010
	 ( -0.009500000000000001 0.036 -0.0015698006057998383 )	// 011
	 ( 0.009500000000000001 0.036 0.0015698006057998383 )	// 012
	 ( -0.009500000000000001 0.036 0.0015698006057998383 )	// 013
	 ( 0.013500000000000002 0.0 0.0 )	// 014
	 ( 0.014100000000000001 0.026999999999999996 -0.0011773504543498787 )	// 015
	 ( 0.014100000000000001 0.026999999999999996 0.0011773504543498787 )	// 016
	 ( 0.015156854249492382 0.03365685424949238 -0.001467626394171389 )	// 017
	 ( 0.015156854249492382 0.03365685424949238 0.001467626394171389 )	// 018
	 ( 0.0175 0.027999999999999997 -0.0012209560267332077 )	// 019
	 ( 0.0175 0.027999999999999997 0.0012209560267332077 )	// 020
	 ( 0.0175 0.0 0.0 )	// 021
	 ( -0.013500000000000002 0.0 0.0 )	// 022
	 ( -0.014100000000000001 0.026999999999999996 -0.0011773504543498787 )	// 023
	 ( -0.014100000000000001 0.026999999999999996 0.0011773504543498787 )	// 024
	 ( -0.015156854249492382 0.03365685424949238 -0.001467626394171389 )	// 025
	 ( -0.0175 0.027999999999999997 -0.0012209560267332077 )	// 026
	 ( -0.015156854249492382 0.03365685424949238 0.001467626394171389 )	// 027
	 ( -0.0175 0.027999999999999997 0.0012209560267332077 )	// 028
	 ( -0.0175 0.0 0.0 )	// 029
); 

edges 
( 
	arc 17 10
		( 0.0038431457505076214 0.03365685424949238 -0.001467626394171389 )
	arc 18 12
		( 0.0038431457505076214 0.03365685424949238 0.001467626394171389 )
	arc 19 17
		( 0.016891036260090295 0.031061467458920716 -0.001354453067612381 )
	arc 20 18
		( 0.016891036260090295 0.031061467458920716 0.001354453067612381 )
	arc 26 25
		( -0.016891036260090295 0.031061467458920716 -0.001354453067612381 )
	arc 28 27
		( -0.016891036260090295 0.031061467458920716 0.001354453067612381 )
	arc 25 11
		( -0.0038431457505076214 0.03365685424949238 -0.001467626394171389 )
	arc 27 13
		( -0.0038431457505076214 0.03365685424949238 0.001467626394171389 )
); 

blocks 
( 
	hex
		( 0  1  2  3  0  1  4  5)	bread1	( 19  29  1)	simpleGrading 	( 1.0  1.0  1.0)

	hex
		( 3  2  6  7  5  4  8  9)	bread1	( 19  7  1)	simpleGrading 	( 1.0  1.0  1.0)

	hex
		( 7  6  10  11  9  8  12  13)	bread1	( 19  10  1)	simpleGrading 	( 1.0  1.0  1.0)

	hex
		( 1  14  15  2  1  14  16  4)	bread1	( 8  29  1)	simpleGrading 	( 1.0  1.0  1.0)

	hex
		( 2  17  10  6  4  18  12  8)	bread1	( 10  7  1)	simpleGrading 	( 1.0  1.0  1.0)

	hex
		( 15  19  17  2  16  20  18  4)	bread1	( 10  8  1)	simpleGrading 	( 1.0  1.0  1.0)

	hex
		( 14  21  19  15  14  21  20  16)	bread1	( 10  29  1)	simpleGrading 	( 1.0  1.0  1.0)

	hex
		( 22  0  3  23  22  0  5  24)	bread1	( 8  29  1)	simpleGrading 	( 1.0  1.0  1.0)

	hex
		( 23  3  25  26  24  5  27  28)	bread1	( 8  10  1)	simpleGrading 	( 1.0  1.0  1.0)

	hex
		( 3  7  11  25  5  9  13  27)	bread1	( 7  10  1)	simpleGrading 	( 1.0  1.0  1.0)

	hex
		( 29  22  23  26  29  22  24  28)	bread1	( 10  29  1)	simpleGrading 	( 1.0  1.0  1.0)

); 

boundary 
( 
	bottom
	{
		type patch;
		faces
		(
			( 29  26  28  29)
		);
	}

	sides
	{
		type patch;
		faces
		(
			( 26  25  27  28)
			( 25  11  13  27)
			( 11  10  12  13)
			( 17  10  12  18)
			( 19  17  18  20)
			( 21  19  20  21)
		);
	}

	wedgeZ0
	{
		type wedge;
		faces
		(
			( 0  1  2  3)
			( 3  2  6  7)
			( 7  6  10  11)
			( 1  14  15  2)
			( 2  17  10  6)
			( 15  19  17  2)
			( 14  21  19  15)
			( 22  0  3  23)
			( 23  3  25  26)
			( 3  7  11  25)
			( 29  22  23  26)
		);
	}

	wedgeZE
	{
		type wedge;
		faces
		(
			( 0  1  4  5)
			( 5  4  8  9)
			( 9  8  12  13)
			( 1  14  16  4)
			( 4  18  12  8)
			( 16  20  18  4)
			( 14  21  20  16)
			( 22  0  5  24)
			( 24  5  27  28)
			( 5  9  13  27)
			( 29  22  24  28)
		);
	}

); 

mergePatchPairs 
( 
); 

