/*--------------------------------*- C++ -*----------------------------------*\ 
| =========                 |                                                 | 
| \      /  F ield         | OpenFOAM: The Open Source CFD Toolbox           | 
|  \    /   O peration     | Version:  4.1                                   | 
|   \  /    A nd           | Web:      www.OpenFOAM.org                      | 
|    \/     M anipulation  |                                                 | 
\*---------------------------------------------------------------------------*/ 
FoamFile 
{ 
 	 version 	 2.0; 
 	 format 	 ascii; 
 	 class 		 dictionary; 
 	 object 	 extrudeMeshDict; 
} 
// * * * * * * * * * * * * * * * * * * * * * * * * * * * * * * * * * * * * * // 

//constructFrom mesh;
constructFrom patch;
//constructFrom surface;
point (0 0 0);
axis (1 0 0);
angle 10;

// If construct from patch/mesh:
sourceCase "./";
sourcePatches (wedgeZ0);
// If construct from patch: patch to use for back (can be same as sourcePatch)
exposedPatchName wedgeZE;
// If construct from surface:
// surface "movingWall.stl";

// Flip surface normals before usage. Valid only for extrude from surface or
// patch.
flipNormals true;

//- Linear extrusion in point-normal direction
//extrudeModel        linearNormal;

//- Linear extrusion in specified direction
//extrudeModel        linearDirection;

//- Wedge extrusion. If nLayers is 1 assumes symmetry around plane.
extrudeModel        wedge;

//- Extrudes into sphere around (0 0 0)
//extrudeModel        linearRadial;

//- Extrudes into sphere around (0 0 0) with specified radii
//extrudeModel        radial;

//- Extrudes into sphere with grading according to pressure (atmospherics)
//extrudeModel        sigmaRadial;

nLayers             1;

expansionRatio      1.0;    //0.9;
mergeFaces false;

