/*--------------------------------*- C++ -*----------------------------------*\
| =========                 |                                                 |
| \\      /  F ield         | OpenFOAM: The Open Source CFD Toolbox           |
|  \\    /   O peration     | Version:  2312                                  |
|   \\  /    A nd           | Website:  www.openfoam.com                      |
|    \\/     M anipulation  |                                                 |
\*---------------------------------------------------------------------------*/
FoamFile
{
    version     2.0;
    format      ascii;
    arch        "LSB;label=32;scalar=64";
    class       polyBoundaryMesh;
    location    "constant/polyMesh";
    object      boundary;
}
// * * * * * * * * * * * * * * * * * * * * * * * * * * * * * * * * * * * * * //

5
(
    bottom
    {
        type            patch;
        nFaces          13;
        startFace       1217;
    }
    sides
    {
        type            patch;
        nFaces          43;
        startFace       1230;
    }
    wedgeZ0
    {
        type            wedge;
        inGroups        1(wedge);
        nFaces          630;
        startFace       1273;
    }
    wedgeZE
    {
        type            wedge;
        inGroups        1(wedge);
        nFaces          630;
        startFace       1903;
    }
    defaultFaces
    {
        type            empty;
        inGroups        1(empty);
        nFaces          0;
        startFace       2533;
    }
)

// ************************************************************************* //
