/*--------------------------------*- C++ -*----------------------------------*\
| solids4foam: solid mechanics and fluid-solid interaction simulations        |
| Version:     v2.0                                                           |
| Web:         https://solids4foam.github.io                                  |
| Disclaimer:  This offering is not approved or endorsed by OpenCFD Limited,  |
|              producer and distributor of the OpenFOAM software via          |
|              www.openfoam.com, and owner of the OPENFOAM® and OpenCFD®      |
|              trade marks.                                                   |
\*---------------------------------------------------------------------------*/
FoamFile
{
    version     2.0;
    format      ascii;
    class       dictionary;
    location    "constant";
    object      solidProperties;
}
// * * * * * * * * * * * * * * * * * * * * * * * * * * * * * * * * * * * * * //

// solidModel     nonLinearGeometryTotalLagrangianTotalDisplacementMy;
solidModel     breadBakingSolid;
// solidModel     nonLinearGeometryTotalLagrangianTotalDisplacement;
// solidModel     nonLinearGeometryUpdatedLagrangian;
// solidModel     nonLinearGeometryTotalLagrangianTotalDisplacement;

"nonLinearGeometryTotalLagrangianTotalDisplacementCoeffs|nonLinearGeometryTotalLagrangianTotalDisplacementMyCoeffs|nonLinearGeometryUpdatedLagrangianCoeffs|breadBakingSolidCoeffs"
{
    // Maximum number of momentum correctors
    nCorrectors           1;

    // Solution tolerance for displacement
    solutionTolerance       1e-6;
    // solutionTolerance       1e-4;

    // Alternative solution tolerance for displacement
    alternativeTolerance    1e-6;
    // alternativeTolerance    1e-4;

    // Material law solution tolerance
    materialTolerance       1e-6;
    // materialTolerance       1e-4;

    // Write frequency for he residuals
    // infoFrequency           5;
    infoFrequency           2;

    // Set displacements of internal cells
    // cellDisplacements
    // {
    //     // Set displacement to zero for the cell closest to the centre of the
    //     // block
    //     cellDisp1
    //     {
    //         // The cell with the cloest centroid to thi point will be selected
    //         approximateCoordinate    (1e-4 0 0);

    //         // The prescribed displacement can be constant or time-varying

    //         // Constant displacement
    //         displacement             (0 0 0);

    //         // Time-varying displacement
    //         // timeVaryingDisplacement
    //         // {
    //         //     "file|fileName" "$FOAM_CASE/constant/timeVsCellDisp3";
    //         //     outOfBounds clamp;
    //         // }
    //     }
    // }
}

// ************************************************************************* //
