/*--------------------------------*- C++ -*----------------------------------*\
  =========                 |
  \\      /  F ield         | OpenFOAM: The Open Source CFD Toolbox
   \\    /   O peration     | Website:  https://openfoam.org
    \\  /    A nd           | Version:  10
     \\/     M anipulation  |
\*---------------------------------------------------------------------------*/
FoamFile
{
    version     1.0;
    format      ascii;
    class       volScalarField;
    location    "0";
    object      alphaL;
}
// * * * * * * * * * * * * * * * * * * * * * * * * * * * * * * * * * * * * * //

dimensions      [0 0 0 0 0 0 0];

internalField   uniform 0.105252;


boundaryField
{
	"(wedgeZ0|wedgeZE)"
	{
		type wedge;
	}
	
	"(sides|bottom|sidesOur|bottomOur|topOur)"
	{
        type zeroGradient;
	}
}

// ************************************************************************* //
