/*--------------------------------*- C++ -*----------------------------------*\
| =========                 |                                                 |
| \\      /  F ield         | OpenFOAM: The Open Source CFD Toolbox           |
|  \\    /   O peration     | Version:  v2312                                 |
|   \\  /    A nd           | Website:  www.openfoam.com                      |
|    \\/     M anipulation  |                                                 |
\*---------------------------------------------------------------------------*/
FoamFile
{
    version     2.0;
    format      ascii;
    class       volScalarField;
    object      omegaV;
}
// * * * * * * * * * * * * * * * * * * * * * * * * * * * * * * * * * * * * * //

dimensions      [0 0 0 0 0 0 0];

internalField   uniform 7.7e-3;

boundaryField
{
    // Zhang experiment
    "(wedgeZ0|wedgeZE)"
	{
		type wedge;
	}   
    
    "(sides|bottom)"
    // "(sides|bottom|sidesOur|bottomOur|topOur)"
    {
        type breadOmegaVMixed;
        kM               0.01; // -- heat transfer coefficient
        omegaVInf        0;    // -- oven temperature

        // -- mixed BC mandatory entires
        refValue        uniform 1e-6;
        refGradient     uniform 0;
        valueFraction   uniform 0;
        value           uniform 1e-6;
	}

    // our experiment
    sidesOur
    {
        type breadOmegaVMixed;
        kM               0.009; // -- heat transfer coefficient
        omegaVInf        7.7e-3;    // -- oven temperature

        // -- mixed BC mandatory entires
        refValue        uniform 7.7e-3;
        refGradient     uniform 0;
        valueFraction   uniform 0;
        value           uniform 7.7e-3;
	}

    topOur
    {
        type breadOmegaVMixed;
        // kM               0.007; // -- heat transfer coefficient
        kM               0.008; // -- heat transfer coefficient
        omegaVInf        7.7e-3;    // -- oven temperature

        // -- mixed BC mandatory entires
        refValue        uniform 7.7e-3;
        refGradient     uniform 0;
        valueFraction   uniform 0;
        value           uniform 7.7e-3;
	}

    bottomOur
    {
        type breadOmegaVMixed;
        // kM               0.001; // -- heat transfer coefficient
        kM               0.007; // -- heat transfer coefficient
        omegaVInf        7.7e-3;    // -- oven temperature

        // -- mixed BC mandatory entires
        refValue        uniform 7.7e-3;
        refGradient     uniform 0;
        valueFraction   uniform 0;
        value           uniform 7.7e-3;
	}

    // "(bottomOur|topOur|sidesOur)"
    // {
    //     type fixedValue;
    //     value uniform 0.02;
    // }
}


// ************************************************************************* //
